* NGSPICE file created from two-stage-miller.ext - technology: sky130A

.subckt sky130_fd_pr__nfet_g5v0d10v5_J76LUE a_n587_n807# a_587_n719# a_29_n807# a_n337_n719#
+ a_n779_n941# a_n279_n807# a_337_n807# a_279_n719# a_n29_n719# a_n645_n719#
X0 a_n29_n719# a_n279_n807# a_n337_n719# a_n779_n941# sky130_fd_pr__nfet_g5v0d10v5 ad=1.0875 pd=7.79 as=1.0875 ps=7.79 w=7.5 l=1.25
X1 a_587_n719# a_337_n807# a_279_n719# a_n779_n941# sky130_fd_pr__nfet_g5v0d10v5 ad=2.175 pd=15.58 as=1.0875 ps=7.79 w=7.5 l=1.25
X2 a_n337_n719# a_n587_n807# a_n645_n719# a_n779_n941# sky130_fd_pr__nfet_g5v0d10v5 ad=1.0875 pd=7.79 as=2.175 ps=15.58 w=7.5 l=1.25
X3 a_279_n719# a_29_n807# a_n29_n719# a_n779_n941# sky130_fd_pr__nfet_g5v0d10v5 ad=1.0875 pd=7.79 as=1.0875 ps=7.79 w=7.5 l=1.25
C0 a_n279_n807# a_29_n807# 0.05942f
C1 a_n337_n719# a_n29_n719# 0.34377f
C2 a_587_n719# a_279_n719# 0.34377f
C3 a_337_n807# a_587_n719# 0.19032f
C4 a_n279_n807# a_n29_n719# 0.19032f
C5 a_n337_n719# a_n645_n719# 0.34377f
C6 a_n337_n719# a_n279_n807# 0.19032f
C7 a_29_n807# a_279_n719# 0.19032f
C8 a_337_n807# a_29_n807# 0.05942f
C9 a_337_n807# a_279_n719# 0.19032f
C10 a_n29_n719# a_29_n807# 0.19032f
C11 a_n29_n719# a_279_n719# 0.34377f
C12 a_n587_n807# a_n337_n719# 0.19032f
C13 a_n587_n807# a_n645_n719# 0.19032f
C14 a_n587_n807# a_n279_n807# 0.05942f
C15 a_587_n719# a_n779_n941# 0.83241f
C16 a_279_n719# a_n779_n941# 0.27095f
C17 a_n29_n719# a_n779_n941# 0.27095f
C18 a_n337_n719# a_n779_n941# 0.27095f
C19 a_n645_n719# a_n779_n941# 0.83241f
C20 a_337_n807# a_n779_n941# 0.58266f
C21 a_29_n807# a_n779_n941# 0.54639f
C22 a_n279_n807# a_n779_n941# 0.54639f
C23 a_n587_n807# a_n779_n941# 0.58266f
.ends

.subckt sky130_fd_pr__pfet_g5v0d10v5_AP3ZHE a_n267_n464# a_29_n561# a_209_n464# a_n29_n464#
+ w_n467_n762# a_n209_n561# VSUBS
X0 a_n29_n464# a_n209_n561# a_n267_n464# w_n467_n762# sky130_fd_pr__pfet_g5v0d10v5 ad=0.725 pd=5.29 as=1.45 ps=10.58 w=5 l=0.9
X1 a_209_n464# a_29_n561# a_n29_n464# w_n467_n762# sky130_fd_pr__pfet_g5v0d10v5 ad=1.45 pd=10.58 as=0.725 ps=5.29 w=5 l=0.9
C0 a_n29_n464# a_n209_n561# 0.10455f
C1 w_n467_n762# a_n209_n561# 0.24174f
C2 a_209_n464# a_n29_n464# 0.29682f
C3 w_n467_n762# a_209_n464# 0.30647f
C4 a_n267_n464# a_n209_n561# 0.10455f
C5 a_29_n561# a_n209_n561# 0.0619f
C6 a_29_n561# a_209_n464# 0.10455f
C7 w_n467_n762# a_n29_n464# 0.02302f
C8 a_n267_n464# a_n29_n464# 0.29682f
C9 w_n467_n762# a_n267_n464# 0.30647f
C10 a_29_n561# a_n29_n464# 0.10455f
C11 w_n467_n762# a_29_n561# 0.24174f
C12 a_209_n464# VSUBS 0.24553f
C13 a_n29_n464# VSUBS 0.13495f
C14 a_n267_n464# VSUBS 0.24553f
C15 a_29_n561# VSUBS 0.20013f
C16 a_n209_n561# VSUBS 0.20013f
C17 w_n467_n762# VSUBS 5.36829f
.ends

.subckt sky130_fd_pr__pfet_g5v0d10v5_D6DL9T a_587_n964# a_1203_n964# a_337_n1061#
+ a_n279_n1061# a_953_n1061# a_n895_n1061# a_n1203_n1061# a_n337_n964# a_n953_n964#
+ a_29_n1061# a_279_n964# a_895_n964# w_n1461_n1262# a_n1261_n964# a_645_n1061# a_n587_n1061#
+ a_n645_n964# a_n29_n964# VSUBS
X0 a_895_n964# a_645_n1061# a_587_n964# w_n1461_n1262# sky130_fd_pr__pfet_g5v0d10v5 ad=1.45 pd=10.29 as=1.45 ps=10.29 w=10 l=1.25
X1 a_n645_n964# a_n895_n1061# a_n953_n964# w_n1461_n1262# sky130_fd_pr__pfet_g5v0d10v5 ad=1.45 pd=10.29 as=1.45 ps=10.29 w=10 l=1.25
X2 a_n29_n964# a_n279_n1061# a_n337_n964# w_n1461_n1262# sky130_fd_pr__pfet_g5v0d10v5 ad=1.45 pd=10.29 as=1.45 ps=10.29 w=10 l=1.25
X3 a_n953_n964# a_n1203_n1061# a_n1261_n964# w_n1461_n1262# sky130_fd_pr__pfet_g5v0d10v5 ad=1.45 pd=10.29 as=2.9 ps=20.58 w=10 l=1.25
X4 a_1203_n964# a_953_n1061# a_895_n964# w_n1461_n1262# sky130_fd_pr__pfet_g5v0d10v5 ad=2.9 pd=20.58 as=1.45 ps=10.29 w=10 l=1.25
X5 a_587_n964# a_337_n1061# a_279_n964# w_n1461_n1262# sky130_fd_pr__pfet_g5v0d10v5 ad=1.45 pd=10.29 as=1.45 ps=10.29 w=10 l=1.25
X6 a_n337_n964# a_n587_n1061# a_n645_n964# w_n1461_n1262# sky130_fd_pr__pfet_g5v0d10v5 ad=1.45 pd=10.29 as=1.45 ps=10.29 w=10 l=1.25
X7 a_279_n964# a_29_n1061# a_n29_n964# w_n1461_n1262# sky130_fd_pr__pfet_g5v0d10v5 ad=1.45 pd=10.29 as=1.45 ps=10.29 w=10 l=1.25
C0 a_587_n964# a_279_n964# 0.45807f
C1 w_n1461_n1262# a_587_n964# 0.02301f
C2 a_895_n964# a_1203_n964# 0.45807f
C3 a_337_n1061# a_279_n964# 0.25181f
C4 w_n1461_n1262# a_n1203_n1061# 0.30834f
C5 a_n645_n964# a_n587_n1061# 0.25181f
C6 w_n1461_n1262# a_337_n1061# 0.28368f
C7 a_n895_n1061# a_n587_n1061# 0.0619f
C8 a_29_n1061# a_279_n964# 0.25181f
C9 a_29_n1061# a_n279_n1061# 0.0619f
C10 a_n1261_n964# a_n1203_n1061# 0.25181f
C11 w_n1461_n1262# a_29_n1061# 0.28368f
C12 a_1203_n964# a_953_n1061# 0.25181f
C13 w_n1461_n1262# a_1203_n964# 0.587f
C14 a_n645_n964# a_n895_n1061# 0.25181f
C15 a_29_n1061# a_n29_n964# 0.25181f
C16 a_645_n1061# a_895_n964# 0.25181f
C17 w_n1461_n1262# a_n953_n964# 0.02301f
C18 a_n895_n1061# a_n1203_n1061# 0.0619f
C19 a_895_n964# a_953_n1061# 0.25181f
C20 w_n1461_n1262# a_895_n964# 0.02301f
C21 a_645_n1061# a_953_n1061# 0.0619f
C22 a_645_n1061# w_n1461_n1262# 0.28368f
C23 a_n1261_n964# a_n953_n964# 0.45807f
C24 a_n337_n964# a_n279_n1061# 0.25181f
C25 a_337_n1061# a_587_n964# 0.25181f
C26 a_n337_n964# w_n1461_n1262# 0.02301f
C27 w_n1461_n1262# a_279_n964# 0.02301f
C28 w_n1461_n1262# a_n279_n1061# 0.28368f
C29 a_n337_n964# a_n29_n964# 0.45807f
C30 w_n1461_n1262# a_953_n1061# 0.30834f
C31 a_n29_n964# a_279_n964# 0.45807f
C32 a_n279_n1061# a_n29_n964# 0.25181f
C33 a_n645_n964# a_n953_n964# 0.45807f
C34 w_n1461_n1262# a_n29_n964# 0.02301f
C35 a_337_n1061# a_29_n1061# 0.0619f
C36 a_n337_n964# a_n587_n1061# 0.25181f
C37 w_n1461_n1262# a_n1261_n964# 0.587f
C38 a_n895_n1061# a_n953_n964# 0.25181f
C39 a_n587_n1061# a_n279_n1061# 0.0619f
C40 w_n1461_n1262# a_n587_n1061# 0.28368f
C41 a_n337_n964# a_n645_n964# 0.45807f
C42 a_n1203_n1061# a_n953_n964# 0.25181f
C43 a_895_n964# a_587_n964# 0.45807f
C44 a_645_n1061# a_587_n964# 0.25181f
C45 w_n1461_n1262# a_n645_n964# 0.02301f
C46 a_645_n1061# a_337_n1061# 0.0619f
C47 w_n1461_n1262# a_n895_n1061# 0.28368f
C48 a_1203_n964# VSUBS 0.51513f
C49 a_895_n964# VSUBS 0.32806f
C50 a_587_n964# VSUBS 0.32806f
C51 a_279_n964# VSUBS 0.32806f
C52 a_n29_n964# VSUBS 0.32806f
C53 a_n337_n964# VSUBS 0.32806f
C54 a_n645_n964# VSUBS 0.32806f
C55 a_n953_n964# VSUBS 0.32806f
C56 a_n1261_n964# VSUBS 0.51513f
C57 a_953_n1061# VSUBS 0.28371f
C58 a_645_n1061# VSUBS 0.27033f
C59 a_337_n1061# VSUBS 0.27033f
C60 a_29_n1061# VSUBS 0.27033f
C61 a_n279_n1061# VSUBS 0.27033f
C62 a_n587_n1061# VSUBS 0.27033f
C63 a_n895_n1061# VSUBS 0.27033f
C64 a_n1203_n1061# VSUBS 0.28371f
C65 w_n1461_n1262# VSUBS 25.0677f
.ends

.subckt sky130_fd_pr__pfet_g5v0d10v5_ZPXM7F a_n337_n904# a_n587_n968# a_n953_n904#
+ a_645_n968# a_29_n968# a_1261_n968# a_1569_n968# a_n2185_n904# a_2435_n904# a_n2435_n968#
+ a_279_n904# a_895_n904# a_n2801_n904# a_1511_n904# a_n1261_n904# a_n1569_n904# a_n1511_n968#
+ a_1819_n904# a_2493_n968# a_n1819_n968# a_n279_n968# a_n29_n904# a_n645_n904# a_n895_n968#
+ a_337_n968# a_953_n968# w_n2837_n1004# a_2127_n904# a_1877_n968# a_2743_n904# a_n2493_n904#
+ a_n2127_n968# a_n2743_n968# a_587_n904# a_1203_n904# a_n1203_n968# a_n1877_n904#
+ a_2185_n968# VSUBS
X0 a_n2493_n904# a_n2743_n968# a_n2801_n904# w_n2837_n1004# sky130_fd_pr__pfet_g5v0d10v5 ad=1.363 pd=9.69 as=2.726 ps=19.38 w=9.4 l=1.25
X1 a_n1877_n904# a_n2127_n968# a_n2185_n904# w_n2837_n1004# sky130_fd_pr__pfet_g5v0d10v5 ad=1.363 pd=9.69 as=1.363 ps=9.69 w=9.4 l=1.25
X2 a_895_n904# a_645_n968# a_587_n904# w_n2837_n1004# sky130_fd_pr__pfet_g5v0d10v5 ad=1.363 pd=9.69 as=1.363 ps=9.69 w=9.4 l=1.25
X3 a_n1569_n904# a_n1819_n968# a_n1877_n904# w_n2837_n1004# sky130_fd_pr__pfet_g5v0d10v5 ad=1.363 pd=9.69 as=1.363 ps=9.69 w=9.4 l=1.25
X4 a_n645_n904# a_n895_n968# a_n953_n904# w_n2837_n1004# sky130_fd_pr__pfet_g5v0d10v5 ad=1.363 pd=9.69 as=1.363 ps=9.69 w=9.4 l=1.25
X5 a_1819_n904# a_1569_n968# a_1511_n904# w_n2837_n1004# sky130_fd_pr__pfet_g5v0d10v5 ad=1.363 pd=9.69 as=1.363 ps=9.69 w=9.4 l=1.25
X6 a_n29_n904# a_n279_n968# a_n337_n904# w_n2837_n1004# sky130_fd_pr__pfet_g5v0d10v5 ad=1.363 pd=9.69 as=1.363 ps=9.69 w=9.4 l=1.25
X7 a_n2185_n904# a_n2435_n968# a_n2493_n904# w_n2837_n1004# sky130_fd_pr__pfet_g5v0d10v5 ad=1.363 pd=9.69 as=1.363 ps=9.69 w=9.4 l=1.25
X8 a_n953_n904# a_n1203_n968# a_n1261_n904# w_n2837_n1004# sky130_fd_pr__pfet_g5v0d10v5 ad=1.363 pd=9.69 as=1.363 ps=9.69 w=9.4 l=1.25
X9 a_1203_n904# a_953_n968# a_895_n904# w_n2837_n1004# sky130_fd_pr__pfet_g5v0d10v5 ad=1.363 pd=9.69 as=1.363 ps=9.69 w=9.4 l=1.25
X10 a_2435_n904# a_2185_n968# a_2127_n904# w_n2837_n1004# sky130_fd_pr__pfet_g5v0d10v5 ad=1.363 pd=9.69 as=1.363 ps=9.69 w=9.4 l=1.25
X11 a_587_n904# a_337_n968# a_279_n904# w_n2837_n1004# sky130_fd_pr__pfet_g5v0d10v5 ad=1.363 pd=9.69 as=1.363 ps=9.69 w=9.4 l=1.25
X12 a_2127_n904# a_1877_n968# a_1819_n904# w_n2837_n1004# sky130_fd_pr__pfet_g5v0d10v5 ad=1.363 pd=9.69 as=1.363 ps=9.69 w=9.4 l=1.25
X13 a_n337_n904# a_n587_n968# a_n645_n904# w_n2837_n1004# sky130_fd_pr__pfet_g5v0d10v5 ad=1.363 pd=9.69 as=1.363 ps=9.69 w=9.4 l=1.25
X14 a_279_n904# a_29_n968# a_n29_n904# w_n2837_n1004# sky130_fd_pr__pfet_g5v0d10v5 ad=1.363 pd=9.69 as=1.363 ps=9.69 w=9.4 l=1.25
X15 a_n1261_n904# a_n1511_n968# a_n1569_n904# w_n2837_n1004# sky130_fd_pr__pfet_g5v0d10v5 ad=1.363 pd=9.69 as=1.363 ps=9.69 w=9.4 l=1.25
X16 a_1511_n904# a_1261_n968# a_1203_n904# w_n2837_n1004# sky130_fd_pr__pfet_g5v0d10v5 ad=1.363 pd=9.69 as=1.363 ps=9.69 w=9.4 l=1.25
X17 a_2743_n904# a_2493_n968# a_2435_n904# w_n2837_n1004# sky130_fd_pr__pfet_g5v0d10v5 ad=2.726 pd=19.38 as=1.363 ps=9.69 w=9.4 l=1.25
C0 a_n2127_n968# a_n2435_n968# 0.04671f
C1 w_n2837_n1004# a_n1261_n904# 0.00517f
C2 w_n2837_n1004# a_953_n968# 0.13139f
C3 a_953_n968# a_1203_n904# 0.23705f
C4 a_1819_n904# a_1511_n904# 0.43064f
C5 w_n2837_n1004# a_337_n968# 0.13139f
C6 w_n2837_n1004# a_2493_n968# 0.1355f
C7 a_29_n968# a_n29_n904# 0.23705f
C8 w_n2837_n1004# a_n953_n904# 0.00517f
C9 a_n1819_n968# a_n1511_n968# 0.04671f
C10 a_1261_n968# a_1511_n904# 0.23705f
C11 a_1877_n968# a_2127_n904# 0.23705f
C12 a_1261_n968# a_953_n968# 0.04671f
C13 a_279_n904# a_29_n968# 0.23705f
C14 w_n2837_n1004# a_n29_n904# 0.00517f
C15 w_n2837_n1004# a_n1203_n968# 0.13139f
C16 a_2493_n968# a_2743_n904# 0.23705f
C17 w_n2837_n1004# a_n1511_n968# 0.13139f
C18 w_n2837_n1004# a_279_n904# 0.00517f
C19 a_n895_n968# a_n645_n904# 0.23705f
C20 a_n279_n968# a_n29_n904# 0.23705f
C21 a_645_n968# a_895_n904# 0.23705f
C22 w_n2837_n1004# a_587_n904# 0.00517f
C23 w_n2837_n1004# a_n2493_n904# 0.00517f
C24 a_n1569_n904# a_n1261_n904# 0.43064f
C25 a_n2493_n904# a_n2435_n968# 0.23705f
C26 a_2435_n904# a_2127_n904# 0.43064f
C27 a_n895_n968# a_n953_n904# 0.23705f
C28 a_n337_n904# a_n645_n904# 0.43064f
C29 w_n2837_n1004# a_2185_n968# 0.13139f
C30 a_895_n904# a_953_n968# 0.23705f
C31 a_n1877_n904# a_n1819_n968# 0.23705f
C32 a_n2185_n904# a_n2127_n968# 0.23705f
C33 a_n2493_n904# a_n2743_n968# 0.23705f
C34 a_n1569_n904# a_n1511_n968# 0.23705f
C35 w_n2837_n1004# a_n1819_n968# 0.13139f
C36 w_n2837_n1004# a_29_n968# 0.13139f
C37 a_n895_n968# a_n1203_n968# 0.04671f
C38 w_n2837_n1004# a_n1877_n904# 0.00517f
C39 a_645_n968# a_953_n968# 0.04671f
C40 a_2435_n904# a_2493_n968# 0.23705f
C41 w_n2837_n1004# a_1569_n968# 0.13139f
C42 a_29_n968# a_n279_n968# 0.04671f
C43 a_645_n968# a_337_n968# 0.04671f
C44 w_n2837_n1004# a_1203_n904# 0.00517f
C45 a_n645_n904# a_n953_n904# 0.43064f
C46 a_1569_n968# a_1819_n904# 0.23705f
C47 w_n2837_n1004# a_1819_n904# 0.00517f
C48 w_n2837_n1004# a_n2435_n968# 0.13139f
C49 a_n2801_n904# a_n2493_n904# 0.43064f
C50 a_1877_n968# a_2185_n968# 0.04671f
C51 w_n2837_n1004# a_n587_n968# 0.13139f
C52 a_1261_n968# a_1569_n968# 0.04671f
C53 a_895_n904# a_587_n904# 0.43064f
C54 w_n2837_n1004# a_n279_n968# 0.13139f
C55 w_n2837_n1004# a_1261_n968# 0.13139f
C56 a_n337_n904# a_n29_n904# 0.43064f
C57 a_1261_n968# a_1203_n904# 0.23705f
C58 w_n2837_n1004# a_2743_n904# 0.02812f
C59 a_n953_n904# a_n1261_n904# 0.43064f
C60 a_n587_n968# a_n279_n968# 0.04671f
C61 w_n2837_n1004# a_n2743_n968# 0.1355f
C62 a_n1569_n904# a_n1819_n968# 0.23705f
C63 a_n2185_n904# a_n2493_n904# 0.43064f
C64 a_n2743_n968# a_n2435_n968# 0.04671f
C65 a_645_n968# a_587_n904# 0.23705f
C66 a_1877_n968# a_1569_n968# 0.04671f
C67 a_n1877_n904# a_n1569_n904# 0.43064f
C68 w_n2837_n1004# a_1877_n968# 0.13139f
C69 a_n1203_n968# a_n1261_n904# 0.23705f
C70 a_n1261_n904# a_n1511_n968# 0.23705f
C71 a_1877_n968# a_1819_n904# 0.23705f
C72 w_n2837_n1004# a_n1569_n904# 0.00517f
C73 a_n1203_n968# a_n953_n904# 0.23705f
C74 a_279_n904# a_337_n968# 0.23705f
C75 a_2435_n904# a_2185_n968# 0.23705f
C76 a_2127_n904# a_2185_n968# 0.23705f
C77 w_n2837_n1004# a_n895_n968# 0.13139f
C78 w_n2837_n1004# a_n2801_n904# 0.02812f
C79 a_337_n968# a_587_n904# 0.23705f
C80 w_n2837_n1004# a_895_n904# 0.00517f
C81 a_n895_n968# a_n587_n968# 0.04671f
C82 a_895_n904# a_1203_n904# 0.43064f
C83 a_n1203_n968# a_n1511_n968# 0.04671f
C84 a_279_n904# a_n29_n904# 0.43064f
C85 a_n2185_n904# a_n1877_n904# 0.43064f
C86 w_n2837_n1004# a_n2185_n904# 0.00517f
C87 w_n2837_n1004# a_2435_n904# 0.00517f
C88 w_n2837_n1004# a_2127_n904# 0.00517f
C89 a_n1819_n968# a_n2127_n968# 0.04671f
C90 a_n2801_n904# a_n2743_n968# 0.23705f
C91 w_n2837_n1004# a_n337_n904# 0.00517f
C92 w_n2837_n1004# a_n645_n904# 0.00517f
C93 a_2493_n968# a_2185_n968# 0.04671f
C94 w_n2837_n1004# a_645_n968# 0.13139f
C95 a_279_n904# a_587_n904# 0.43064f
C96 a_n2185_n904# a_n2435_n968# 0.23705f
C97 a_2127_n904# a_1819_n904# 0.43064f
C98 a_n1877_n904# a_n2127_n968# 0.23705f
C99 a_n337_n904# a_n587_n968# 0.23705f
C100 a_n645_n904# a_n587_n968# 0.23705f
C101 w_n2837_n1004# a_n2127_n968# 0.13139f
C102 a_29_n968# a_337_n968# 0.04671f
C103 a_n337_n904# a_n279_n968# 0.23705f
C104 a_2435_n904# a_2743_n904# 0.43064f
C105 a_1569_n968# a_1511_n904# 0.23705f
C106 w_n2837_n1004# a_1511_n904# 0.00517f
C107 a_1511_n904# a_1203_n904# 0.43064f
C108 a_2743_n904# VSUBS 0.91488f
C109 a_2435_n904# VSUBS 0.32483f
C110 a_2127_n904# VSUBS 0.32483f
C111 a_1819_n904# VSUBS 0.32483f
C112 a_1511_n904# VSUBS 0.32483f
C113 a_1203_n904# VSUBS 0.32483f
C114 a_895_n904# VSUBS 0.32483f
C115 a_587_n904# VSUBS 0.32483f
C116 a_279_n904# VSUBS 0.32483f
C117 a_n29_n904# VSUBS 0.32483f
C118 a_n337_n904# VSUBS 0.32483f
C119 a_n645_n904# VSUBS 0.32483f
C120 a_n953_n904# VSUBS 0.32483f
C121 a_n1261_n904# VSUBS 0.32483f
C122 a_n1569_n904# VSUBS 0.32483f
C123 a_n1877_n904# VSUBS 0.32483f
C124 a_n2185_n904# VSUBS 0.32483f
C125 a_n2493_n904# VSUBS 0.32483f
C126 a_n2801_n904# VSUBS 0.91488f
C127 a_2493_n968# VSUBS 0.38542f
C128 a_2185_n968# VSUBS 0.35712f
C129 a_1877_n968# VSUBS 0.35712f
C130 a_1569_n968# VSUBS 0.35712f
C131 a_1261_n968# VSUBS 0.35712f
C132 a_953_n968# VSUBS 0.35712f
C133 a_645_n968# VSUBS 0.35712f
C134 a_337_n968# VSUBS 0.35712f
C135 a_29_n968# VSUBS 0.35712f
C136 a_n279_n968# VSUBS 0.35712f
C137 a_n587_n968# VSUBS 0.35712f
C138 a_n895_n968# VSUBS 0.35712f
C139 a_n1203_n968# VSUBS 0.35712f
C140 a_n1511_n968# VSUBS 0.35712f
C141 a_n1819_n968# VSUBS 0.35712f
C142 a_n2127_n968# VSUBS 0.35712f
C143 a_n2435_n968# VSUBS 0.35712f
C144 a_n2743_n968# VSUBS 0.38542f
C145 w_n2837_n1004# VSUBS 34.7589f
.ends

.subckt mirror-load D2 VDD D1 VSUBS
XXM2 VDD D1 VDD D1 D1 D1 D1 VDD D1 D1 VDD VDD D1 VDD D1 VDD D1 D2 D1 D1 D1 D1 D2 D1
+ D1 D1 VDD VDD D1 D1 D1 D1 D1 D2 D1 D1 D2 D1 VSUBS sky130_fd_pr__pfet_g5v0d10v5_ZPXM7F
C0 D1 VDD 13.69515f
C1 D1 D2 3.82995f
C2 D2 VDD 3.29968f
C3 D2 VSUBS 2.64612f
C4 VDD VSUBS 42.12223f
C5 D1 VSUBS 4.04356f
.ends

.subckt sky130_fd_pr__nfet_g5v0d10v5_X57ESK a_n187_n506# a_n345_n506# a_129_n506#
+ a_287_n506# a_29_n532# a_n129_n532# a_187_n532# a_n287_n532# a_n29_n506# VSUBS
X0 a_n187_n506# a_n287_n532# a_n345_n506# VSUBS sky130_fd_pr__nfet_g5v0d10v5 ad=0.68875 pd=5.04 as=1.3775 ps=10.08 w=4.75 l=0.5
X1 a_287_n506# a_187_n532# a_129_n506# VSUBS sky130_fd_pr__nfet_g5v0d10v5 ad=1.3775 pd=10.08 as=0.68875 ps=5.04 w=4.75 l=0.5
X2 a_129_n506# a_29_n532# a_n29_n506# VSUBS sky130_fd_pr__nfet_g5v0d10v5 ad=0.68875 pd=5.04 as=0.68875 ps=5.04 w=4.75 l=0.5
X3 a_n29_n506# a_n129_n532# a_n187_n506# VSUBS sky130_fd_pr__nfet_g5v0d10v5 ad=0.68875 pd=5.04 as=0.68875 ps=5.04 w=4.75 l=0.5
C0 a_129_n506# a_n29_n506# 0.34129f
C1 a_n129_n532# a_n29_n506# 0.05102f
C2 a_n187_n506# a_n129_n532# 0.05102f
C3 a_n345_n506# a_n287_n532# 0.05102f
C4 a_129_n506# a_287_n506# 0.34129f
C5 a_n187_n506# a_n287_n532# 0.05102f
C6 a_n29_n506# a_29_n532# 0.05102f
C7 a_287_n506# a_187_n532# 0.05102f
C8 a_n129_n532# a_n287_n532# 0.05942f
C9 a_129_n506# a_187_n532# 0.05102f
C10 a_129_n506# a_29_n532# 0.05102f
C11 a_n129_n532# a_29_n532# 0.05942f
C12 a_29_n532# a_187_n532# 0.05942f
C13 a_n187_n506# a_n345_n506# 0.34129f
C14 a_n187_n506# a_n29_n506# 0.34129f
C15 a_287_n506# VSUBS 0.36723f
C16 a_129_n506# VSUBS 0.08691f
C17 a_n29_n506# VSUBS 0.08691f
C18 a_n187_n506# VSUBS 0.08691f
C19 a_n345_n506# VSUBS 0.36723f
C20 a_187_n532# VSUBS 0.25901f
C21 a_29_n532# VSUBS 0.2242f
C22 a_n129_n532# VSUBS 0.2242f
C23 a_n287_n532# VSUBS 0.25901f
.ends

.subckt sky130_fd_pr__nfet_g5v0d10v5_SNDLS5 a_n29_n444# a_n187_n444# a_n345_n444#
+ a_29_n532# a_n129_n532# a_187_n532# a_129_n444# a_n287_n532# a_287_n444# VSUBS
X0 a_129_n444# a_29_n532# a_n29_n444# VSUBS sky130_fd_pr__nfet_g5v0d10v5 ad=0.68875 pd=5.04 as=0.68875 ps=5.04 w=4.75 l=0.5
X1 a_n29_n444# a_n129_n532# a_n187_n444# VSUBS sky130_fd_pr__nfet_g5v0d10v5 ad=0.68875 pd=5.04 as=0.68875 ps=5.04 w=4.75 l=0.5
X2 a_n187_n444# a_n287_n532# a_n345_n444# VSUBS sky130_fd_pr__nfet_g5v0d10v5 ad=0.68875 pd=5.04 as=1.3775 ps=10.08 w=4.75 l=0.5
X3 a_287_n444# a_187_n532# a_129_n444# VSUBS sky130_fd_pr__nfet_g5v0d10v5 ad=1.3775 pd=10.08 as=0.68875 ps=5.04 w=4.75 l=0.5
C0 a_n129_n532# a_n287_n532# 0.05942f
C1 a_29_n532# a_287_n444# 0.00651f
C2 a_287_n444# a_n29_n444# 0.03881f
C3 a_287_n444# a_129_n444# 0.34523f
C4 a_n187_n444# a_n29_n444# 0.34523f
C5 a_n187_n444# a_n345_n444# 0.34523f
C6 a_29_n532# a_n29_n444# 0.05885f
C7 a_29_n532# a_129_n444# 0.05102f
C8 a_n187_n444# a_n287_n532# 0.05102f
C9 a_n187_n444# a_n129_n532# 0.05102f
C10 a_129_n444# a_n29_n444# 0.34523f
C11 a_n345_n444# a_n29_n444# 0.03881f
C12 a_187_n532# a_287_n444# 0.05885f
C13 a_29_n532# a_n129_n532# 0.05942f
C14 a_n287_n532# a_n29_n444# 0.00651f
C15 a_n129_n532# a_n29_n444# 0.05885f
C16 a_n345_n444# a_n287_n532# 0.05885f
C17 a_n129_n532# a_n345_n444# 0.00651f
C18 a_187_n532# a_29_n532# 0.05942f
C19 a_187_n532# a_n29_n444# 0.00651f
C20 a_187_n532# a_129_n444# 0.05102f
C21 a_287_n444# VSUBS 0.4557f
C22 a_129_n444# VSUBS 0.08691f
C23 a_n29_n444# VSUBS 0.1204f
C24 a_n187_n444# VSUBS 0.08691f
C25 a_n345_n444# VSUBS 0.4557f
C26 a_187_n532# VSUBS 0.25901f
C27 a_29_n532# VSUBS 0.2242f
C28 a_n129_n532# VSUBS 0.2242f
C29 a_n287_n532# VSUBS 0.25901f
.ends

.subckt sky130_fd_pr__nfet_g5v0d10v5_CQ6KSH a_n29_n444# a_n187_n444# a_n345_n444#
+ a_29_n532# a_n129_n532# a_187_n532# a_129_n444# a_n287_n532# a_287_n444# VSUBS
X0 a_129_n444# a_29_n532# a_n29_n444# VSUBS sky130_fd_pr__nfet_g5v0d10v5 ad=0.68875 pd=5.04 as=0.68875 ps=5.04 w=4.75 l=0.5
X1 a_n29_n444# a_n129_n532# a_n187_n444# VSUBS sky130_fd_pr__nfet_g5v0d10v5 ad=0.68875 pd=5.04 as=0.68875 ps=5.04 w=4.75 l=0.5
X2 a_n187_n444# a_n287_n532# a_n345_n444# VSUBS sky130_fd_pr__nfet_g5v0d10v5 ad=0.68875 pd=5.04 as=1.3775 ps=10.08 w=4.75 l=0.5
X3 a_287_n444# a_187_n532# a_129_n444# VSUBS sky130_fd_pr__nfet_g5v0d10v5 ad=1.3775 pd=10.08 as=0.68875 ps=5.04 w=4.75 l=0.5
C0 a_287_n444# a_129_n444# 0.34129f
C1 a_n345_n444# a_n287_n532# 0.05102f
C2 a_n129_n532# a_n187_n444# 0.05102f
C3 a_n129_n532# a_n29_n444# 0.05102f
C4 a_n129_n532# a_29_n532# 0.05942f
C5 a_n129_n532# a_n287_n532# 0.05942f
C6 a_129_n444# a_n29_n444# 0.34129f
C7 a_129_n444# a_29_n532# 0.05102f
C8 a_n29_n444# a_n187_n444# 0.34129f
C9 a_287_n444# a_187_n532# 0.05102f
C10 a_n29_n444# a_29_n532# 0.05102f
C11 a_n287_n532# a_n187_n444# 0.05102f
C12 a_187_n532# a_129_n444# 0.05102f
C13 a_n345_n444# a_n187_n444# 0.34129f
C14 a_187_n532# a_29_n532# 0.05942f
C15 a_287_n444# VSUBS 0.36723f
C16 a_129_n444# VSUBS 0.08691f
C17 a_n29_n444# VSUBS 0.08691f
C18 a_n187_n444# VSUBS 0.08691f
C19 a_n345_n444# VSUBS 0.36723f
C20 a_187_n532# VSUBS 0.25901f
C21 a_29_n532# VSUBS 0.2242f
C22 a_n129_n532# VSUBS 0.2242f
C23 a_n287_n532# VSUBS 0.25901f
.ends

.subckt differential-pair VSS a_5210_2100# a_4420_2100# a_5620_200# a_4420_200# a_6410_210#
+ a_3720_200# a_2510_200# S a_2920_2100# a_5210_200# a_6410_2100# a_2920_200# a_5620_2100#
+ a_2510_2100# D1 a_1720_2100# a_1720_200# a_3710_2090# VN VP D2
Xsky130_fd_pr__nfet_g5v0d10v5_X57ESK_0 D1 D1 D1 D1 VP VP D1 D1 S VSS sky130_fd_pr__nfet_g5v0d10v5_X57ESK
Xsky130_fd_pr__nfet_g5v0d10v5_SNDLS5_0 S D2 D2 VN VN D2 D2 D2 D2 VSS sky130_fd_pr__nfet_g5v0d10v5_SNDLS5
Xsky130_fd_pr__nfet_g5v0d10v5_X57ESK_1 D1 D1 D1 D1 VP VP D1 D1 S VSS sky130_fd_pr__nfet_g5v0d10v5_X57ESK
Xsky130_fd_pr__nfet_g5v0d10v5_X57ESK_2 D1 D1 D1 D1 VP VP D1 D1 S VSS sky130_fd_pr__nfet_g5v0d10v5_X57ESK
Xsky130_fd_pr__nfet_g5v0d10v5_X57ESK_3 D1 D1 D1 D1 VP VP D1 D1 S VSS sky130_fd_pr__nfet_g5v0d10v5_X57ESK
Xsky130_fd_pr__nfet_g5v0d10v5_CQ6KSH_0 S D2 D2 VN VN D2 D2 D2 D2 VSS sky130_fd_pr__nfet_g5v0d10v5_CQ6KSH
Xsky130_fd_pr__nfet_g5v0d10v5_CQ6KSH_1 S D2 D2 VN VN D2 D2 D2 D2 VSS sky130_fd_pr__nfet_g5v0d10v5_CQ6KSH
Xsky130_fd_pr__nfet_g5v0d10v5_CQ6KSH_2 S D2 D2 VN VN D2 D2 D2 D2 VSS sky130_fd_pr__nfet_g5v0d10v5_CQ6KSH
C0 VN a_4420_200# 0
C1 a_4420_200# D2 0.01395f
C2 a_5210_200# a_4420_200# 0.02082f
C3 VN a_3720_200# 0
C4 VN a_5210_2100# 0.01013f
C5 S a_4420_200# 0.12752f
C6 a_5620_2100# a_5210_2100# 0.04663f
C7 VN a_6410_2100# 0.01013f
C8 D1 a_4420_200# 0.11957f
C9 a_2510_2100# a_1720_2100# 0.02082f
C10 a_3720_200# D2 0.01484f
C11 a_5620_2100# a_6410_2100# 0.02082f
C12 VN a_5620_2100# 0.01013f
C13 D2 a_5210_2100# 0.128f
C14 a_1720_200# a_1720_2100# 0.00109f
C15 a_4420_200# VP 0.01038f
C16 D2 a_6410_2100# 0.01857f
C17 VN D2 2.00876f
C18 a_5210_200# a_5210_2100# 0.00107f
C19 a_5620_2100# D2 0.02085f
C20 S a_3720_200# 0.13056f
C21 D1 a_3720_200# 0.12743f
C22 S a_5210_2100# 0.01234f
C23 VN a_5210_200# 0.00173f
C24 D1 a_5210_2100# 0.02102f
C25 a_3710_2090# a_3720_200# 0
C26 S a_6410_2100# 0.01089f
C27 a_4420_200# a_4420_2100# 0.00107f
C28 VN S 6.91268f
C29 D1 a_6410_2100# 0.13685f
C30 a_3720_200# VP 0.0112f
C31 D1 VN 1.44046f
C32 a_5210_2100# VP 0.03078f
C33 S a_5620_2100# 0.01133f
C34 a_2510_200# VN 0.00331f
C35 a_5210_200# D2 0.02436f
C36 a_3710_2090# VN 0.0109f
C37 D1 a_5620_2100# 0.1257f
C38 a_6410_2100# VP 0.00358f
C39 VN VP 1.71011f
C40 a_2920_2100# VN 0.01013f
C41 S D2 3.74033f
C42 D1 D2 10.72437f
C43 a_5620_2100# VP 0.045f
C44 a_2510_200# D2 0.13428f
C45 a_3710_2090# D2 0.1323f
C46 S a_5210_200# 0.01411f
C47 D2 VP 1.7381f
C48 a_2920_2100# D2 0.13272f
C49 D1 a_5210_200# 0.12337f
C50 a_4420_2100# a_5210_2100# 0.02043f
C51 D1 S 3.32348f
C52 VN a_4420_2100# 0.01013f
C53 a_2510_200# S 0.01284f
C54 a_5210_200# VP 0.01039f
C55 a_3710_2090# S 0.12441f
C56 D1 a_2510_200# 0.02386f
C57 D1 a_3710_2090# 0.01306f
C58 S VP 7.19749f
C59 a_2920_2100# S 0.01618f
C60 D1 VP 2.1751f
C61 D1 a_2920_2100# 0.02172f
C62 VN a_5620_200# 0.00316f
C63 a_4420_2100# D2 0.13065f
C64 a_2510_200# VP 0.01092f
C65 a_3710_2090# VP 0.00281f
C66 a_2920_2100# a_3710_2090# 0.01133f
C67 a_5620_200# a_5620_2100# 0.00107f
C68 a_2920_2100# VP 0.03133f
C69 a_5620_200# D2 0.12979f
C70 a_6410_210# a_6410_2100# 0.00108f
C71 a_6410_210# VN 0.04315f
C72 S a_4420_2100# 0.13132f
C73 a_2510_2100# VN 0.01013f
C74 D1 a_4420_2100# 0.01332f
C75 a_5210_200# a_5620_200# 0.04571f
C76 a_3710_2090# a_4420_2100# 0.02486f
C77 VN a_1720_200# 0.04439f
C78 a_6410_210# D2 0.13273f
C79 a_4420_2100# VP 0.00273f
C80 S a_5620_200# 0.01261f
C81 a_2920_2100# a_4420_2100# 0.00461f
C82 a_2510_2100# D2 0.02128f
C83 D1 a_5620_200# 0.02396f
C84 a_1720_200# D2 0.13361f
C85 a_5620_200# VP 0.0101f
C86 a_6410_210# S 0.01107f
C87 VN a_1720_2100# 0.01013f
C88 D1 a_6410_210# 0.01737f
C89 a_2510_2100# S 0.01121f
C90 a_2920_200# a_3720_200# 0.02054f
C91 D1 a_2510_2100# 0.12736f
C92 a_2510_2100# a_2510_200# 0.00109f
C93 S a_1720_200# 0.0118f
C94 D1 a_1720_200# 0.01752f
C95 a_6410_210# VP 0.01049f
C96 a_2510_200# a_1720_200# 0.02043f
C97 a_2920_200# VN 0.00181f
C98 D2 a_1720_2100# 0.01861f
C99 a_2510_2100# VP 0.04468f
C100 a_2920_2100# a_2510_2100# 0.04663f
C101 a_1720_200# VP 0.01092f
C102 a_2920_200# D2 0.02516f
C103 S a_1720_2100# 0.01132f
C104 D1 a_1720_2100# 0.13423f
C105 VP a_1720_2100# 0.00351f
C106 a_2920_200# S 0.01404f
C107 a_6410_210# a_5620_200# 0.01999f
C108 D1 a_2920_200# 0.12627f
C109 a_2510_200# a_2920_200# 0.04663f
C110 a_4420_200# a_3720_200# 0.01595f
C111 a_2920_200# VP 0.0112f
C112 a_2920_2100# a_2920_200# 0.00109f
C113 a_6410_210# VSS 0.73929f
C114 a_5620_200# VSS 0.68028f
C115 a_5210_200# VSS 0.68003f
C116 a_4420_200# VSS 0.69659f
C117 a_3720_200# VSS 0.73656f
C118 a_2920_200# VSS 0.69319f
C119 a_2510_200# VSS 0.69291f
C120 a_1720_200# VSS 0.75406f
C121 a_6410_2100# VSS 0.75393f
C122 a_5620_2100# VSS 0.69351f
C123 a_5210_2100# VSS 0.69348f
C124 a_4420_2100# VSS 0.71053f
C125 a_3710_2090# VSS 0.71095f
C126 a_2920_2100# VSS 0.69357f
C127 a_2510_2100# VSS 0.69349f
C128 a_1720_2100# VSS 0.75462f
C129 D2 VSS 7.92398f
C130 VN VSS 5.76024f
C131 VP VSS 5.14956f
C132 D1 VSS 9.47276f
C133 S VSS 9.00222f
.ends

.subckt sky130_fd_pr__nfet_g5v0d10v5_7GKDBD a_n953_n781# a_2185_n807# a_n587_n807#
+ a_645_n807# a_29_n807# a_2435_n781# a_n2185_n781# a_1261_n807# a_1569_n807# a_279_n781#
+ a_n2801_n781# a_895_n781# a_n2435_n807# a_n1261_n781# a_1511_n781# a_1819_n781#
+ a_n1569_n781# a_n29_n781# a_n645_n781# a_n1511_n807# a_2493_n807# a_n279_n807# a_n1819_n807#
+ a_n895_n807# a_337_n807# a_953_n807# a_2127_n781# a_n2493_n781# a_2743_n781# a_587_n781#
+ a_1877_n807# a_n2127_n807# a_n2743_n807# a_1203_n781# a_n1877_n781# a_n337_n781#
+ a_n1203_n807# VSUBS
X0 a_1511_n781# a_1261_n807# a_1203_n781# VSUBS sky130_fd_pr__nfet_g5v0d10v5 ad=1.0875 pd=7.79 as=1.0875 ps=7.79 w=7.5 l=1.25
X1 a_n2493_n781# a_n2743_n807# a_n2801_n781# VSUBS sky130_fd_pr__nfet_g5v0d10v5 ad=1.0875 pd=7.79 as=2.175 ps=15.58 w=7.5 l=1.25
X2 a_n1261_n781# a_n1511_n807# a_n1569_n781# VSUBS sky130_fd_pr__nfet_g5v0d10v5 ad=1.0875 pd=7.79 as=1.0875 ps=7.79 w=7.5 l=1.25
X3 a_2743_n781# a_2493_n807# a_2435_n781# VSUBS sky130_fd_pr__nfet_g5v0d10v5 ad=2.175 pd=15.58 as=1.0875 ps=7.79 w=7.5 l=1.25
X4 a_n1877_n781# a_n2127_n807# a_n2185_n781# VSUBS sky130_fd_pr__nfet_g5v0d10v5 ad=1.0875 pd=7.79 as=1.0875 ps=7.79 w=7.5 l=1.25
X5 a_895_n781# a_645_n807# a_587_n781# VSUBS sky130_fd_pr__nfet_g5v0d10v5 ad=1.0875 pd=7.79 as=1.0875 ps=7.79 w=7.5 l=1.25
X6 a_n1569_n781# a_n1819_n807# a_n1877_n781# VSUBS sky130_fd_pr__nfet_g5v0d10v5 ad=1.0875 pd=7.79 as=1.0875 ps=7.79 w=7.5 l=1.25
X7 a_n645_n781# a_n895_n807# a_n953_n781# VSUBS sky130_fd_pr__nfet_g5v0d10v5 ad=1.0875 pd=7.79 as=1.0875 ps=7.79 w=7.5 l=1.25
X8 a_1819_n781# a_1569_n807# a_1511_n781# VSUBS sky130_fd_pr__nfet_g5v0d10v5 ad=1.0875 pd=7.79 as=1.0875 ps=7.79 w=7.5 l=1.25
X9 a_n29_n781# a_n279_n807# a_n337_n781# VSUBS sky130_fd_pr__nfet_g5v0d10v5 ad=1.0875 pd=7.79 as=1.0875 ps=7.79 w=7.5 l=1.25
X10 a_n953_n781# a_n1203_n807# a_n1261_n781# VSUBS sky130_fd_pr__nfet_g5v0d10v5 ad=1.0875 pd=7.79 as=1.0875 ps=7.79 w=7.5 l=1.25
X11 a_2435_n781# a_2185_n807# a_2127_n781# VSUBS sky130_fd_pr__nfet_g5v0d10v5 ad=1.0875 pd=7.79 as=1.0875 ps=7.79 w=7.5 l=1.25
X12 a_n2185_n781# a_n2435_n807# a_n2493_n781# VSUBS sky130_fd_pr__nfet_g5v0d10v5 ad=1.0875 pd=7.79 as=1.0875 ps=7.79 w=7.5 l=1.25
X13 a_1203_n781# a_953_n807# a_895_n781# VSUBS sky130_fd_pr__nfet_g5v0d10v5 ad=1.0875 pd=7.79 as=1.0875 ps=7.79 w=7.5 l=1.25
X14 a_587_n781# a_337_n807# a_279_n781# VSUBS sky130_fd_pr__nfet_g5v0d10v5 ad=1.0875 pd=7.79 as=1.0875 ps=7.79 w=7.5 l=1.25
X15 a_2127_n781# a_1877_n807# a_1819_n781# VSUBS sky130_fd_pr__nfet_g5v0d10v5 ad=1.0875 pd=7.79 as=1.0875 ps=7.79 w=7.5 l=1.25
X16 a_n337_n781# a_n587_n807# a_n645_n781# VSUBS sky130_fd_pr__nfet_g5v0d10v5 ad=1.0875 pd=7.79 as=1.0875 ps=7.79 w=7.5 l=1.25
X17 a_279_n781# a_29_n807# a_n29_n781# VSUBS sky130_fd_pr__nfet_g5v0d10v5 ad=1.0875 pd=7.79 as=1.0875 ps=7.79 w=7.5 l=1.25
C0 a_645_n807# a_337_n807# 0.05942f
C1 a_1877_n807# a_2185_n807# 0.05942f
C2 a_1511_n781# a_1819_n781# 0.34377f
C3 a_895_n781# a_1203_n781# 0.34377f
C4 a_953_n807# a_895_n781# 0.19032f
C5 a_1261_n807# a_1569_n807# 0.05942f
C6 a_1569_n807# a_1511_n781# 0.19032f
C7 a_2435_n781# a_2185_n807# 0.19032f
C8 a_29_n807# a_n279_n807# 0.05942f
C9 a_n279_n807# a_n29_n781# 0.19032f
C10 a_n645_n781# a_n953_n781# 0.34377f
C11 a_n1261_n781# a_n1511_n807# 0.19032f
C12 a_n953_n781# a_n1261_n781# 0.34377f
C13 a_n895_n807# a_n587_n807# 0.05942f
C14 a_n2435_n807# a_n2493_n781# 0.19032f
C15 a_1261_n807# a_1511_n781# 0.19032f
C16 a_n2743_n807# a_n2435_n807# 0.05942f
C17 a_n2743_n807# a_n2493_n781# 0.19032f
C18 a_1511_n781# a_1203_n781# 0.34377f
C19 a_1261_n807# a_1203_n781# 0.19032f
C20 a_1261_n807# a_953_n807# 0.05942f
C21 a_n2127_n807# a_n2185_n781# 0.19032f
C22 a_n1819_n807# a_n2127_n807# 0.05942f
C23 a_953_n807# a_1203_n781# 0.19032f
C24 a_1877_n807# a_2127_n781# 0.19032f
C25 a_n1819_n807# a_n1511_n807# 0.05942f
C26 a_n337_n781# a_n587_n807# 0.19032f
C27 a_2493_n807# a_2743_n781# 0.19032f
C28 a_n1261_n781# a_n1203_n807# 0.19032f
C29 a_587_n781# a_895_n781# 0.34377f
C30 a_n2185_n781# a_n1877_n781# 0.34377f
C31 a_n2493_n781# a_n2801_n781# 0.34377f
C32 a_n2743_n807# a_n2801_n781# 0.19032f
C33 a_n1819_n807# a_n1877_n781# 0.19032f
C34 a_n1569_n781# a_n1261_n781# 0.34377f
C35 a_n895_n807# a_n645_n781# 0.19032f
C36 a_645_n807# a_895_n781# 0.19032f
C37 a_2435_n781# a_2493_n807# 0.19032f
C38 a_n337_n781# a_n279_n807# 0.19032f
C39 a_2127_n781# a_1819_n781# 0.34377f
C40 a_n2127_n807# a_n1877_n781# 0.19032f
C41 a_2435_n781# a_2127_n781# 0.34377f
C42 a_29_n807# a_279_n781# 0.19032f
C43 a_279_n781# a_n29_n781# 0.34377f
C44 a_n337_n781# a_n645_n781# 0.34377f
C45 a_1877_n807# a_1819_n781# 0.19032f
C46 a_n1819_n807# a_n1569_n781# 0.19032f
C47 a_29_n807# a_n29_n781# 0.19032f
C48 a_n1203_n807# a_n1511_n807# 0.05942f
C49 a_n279_n807# a_n587_n807# 0.05942f
C50 a_n953_n781# a_n1203_n807# 0.19032f
C51 a_2435_n781# a_2743_n781# 0.34377f
C52 a_645_n807# a_953_n807# 0.05942f